Circuit: * Z:\home\mint\Desktop\Design\Complete_Designs\BatteryModel\BatteryModel.asc

Number of points reduced from 100000 to 65535.
ERROR: Node N001 is floating and connected to current source B3

WARNING: Less than two connections to node INTEGRATED_CURRENT.  This node is used by B7.
No AC stimulus found:
     Set the value of a current or voltage source to "AC 1."
     to make it behave as a signal generator for AC analysis.
Direct Newton iteration for .op point succeeded.
.step iload=0.05
.step iload=0.1

Date: Wed Mar 04 21:13:46 2020
Total elapsed time: 2.088 seconds.

tnom = 27
temp = 27
method = trap
totiter = 5
traniter = 0
tranpoints = 0
accept = 0
rejected = 0
matrix size = 17
fillins = 6
solver = Normal
Matrix Compiler1:      43 opcodes
Matrix Compiler2: 1.07 KB object code size
